[General]
sim-time-limit = 25s
debug-on-errors = true

**.bitrate = 1Mbps
**.communicationRange = 350m
**.displayCommunicationRange = true
**.radioMedium.propagation.propagationSpeed = 299792458mps

*.visualizer.mediumVisualizer.displaySignals = true

**.Mobile1.mobility.speed = 0mps
**.Mobile1.mobility.angle = 180deg

[Config ToF]
network = Network_ToF

[Config TDoA]
network = Network_TDoA
